/tmp/tmp3rlg4uv6.pdb
     RDKit          3D

  3  2  0  0  1  0  0  0  0  0999 V2000
    5.9120    9.2650   41.2170 C   0  0  0  0  0  0  0  0  0  0  0  0
    6.8480    9.8330   41.9940 C   0  0  0  0  0  0  0  0  0  0  0  0
    8.1140    9.8110   41.5490 F   0  0  0  0  0  0  0  0  0  0  0  0
  2  1  1  1
  2  3  1  0
M  END
$$$$
/tmp/tmpycurl_5h.pdb
     RDKit          3D

  3  2  0  0  0  0  0  0  0  0999 V2000
    0.6360   -9.3390  -19.8700 C   0  0  0  0  0  0  0  0  0  0  0  0
    1.7340   -9.9520  -18.9860 C   0  0  0  0  0  0  0  0  0  0  0  0
   -0.1090   -8.2130  -19.1420 C   0  0  0  0  0  0  0  0  0  0  0  0
  1  2  1  0
  1  3  1  0
M  END
$$$$
/tmp/tmp2st4y3mz.pdb
     RDKit          3D

  4  3  0  0  1  0  0  0  0  0999 V2000
   22.5810   10.4320  -26.3790 C   0  0  0  0  0  0  0  0  0  0  0  0
   23.9710   10.3260  -25.7250 C   0  0  0  0  0  0  0  0  0  0  0  0
   22.7620   10.5460  -27.7800 O   0  0  0  0  0  0  0  0  0  0  0  0
   23.8450   10.4720  -24.3260 O   0  0  0  0  0  0  0  0  0  0  0  0
  1  2  1  0
  1  3  1  1
  2  4  1  0
M  END
$$$$
/tmp/tmpdzh8u7xf.pdb
     RDKit          3D

  1  0  0  0  0  0  0  0  0  0999 V2000
  -64.3830   27.1970   31.5050 F   0  0  0  0  0  0  0  0  0  0  0  0
M  END
$$$$
/tmp/tmphd7lmw93.pdb
     RDKit          3D

  1  0  0  0  1  0  0  0  0  0999 V2000
    5.2600  -15.6820   21.0530 F   0  0  0  0  0  0  0  0  0  0  0  0
M  END
$$$$
/tmp/tmpalfz1v25.pdb
     RDKit          3D

  1  0  0  0  1  0  0  0  0  0999 V2000
    3.5800   11.4820   12.4560 O   0  0  0  0  0  0  0  0  0  0  0  0
M  END
$$$$
/tmp/tmpnrcfw640.pdb
     RDKit          3D

  4  3  0  0  1  0  0  0  0  0999 V2000
   -6.3420  -18.7620   -6.0110 C   0  0  0  0  0  0  0  0  0  0  0  0
   -5.4320  -19.6600   -5.6440 F   0  0  0  0  0  0  0  0  0  0  0  0
   -7.2700  -18.6980   -5.0560 F   0  0  0  0  0  0  0  0  0  0  0  0
   -6.9320  -19.1980   -7.1290 F   0  0  0  0  0  0  0  0  0  0  0  0
  1  2  1  0
  1  3  1  0
  1  4  1  0
M  END
$$$$
/tmp/tmpmpivz4ez.pdb
     RDKit          3D

  2  1  0  0  1  0  0  0  0  0999 V2000
  -44.7970    5.7940   34.1520 C   0  0  0  0  0  0  0  0  0  0  0  0
  -43.9720    6.1650   35.2450 O   0  0  0  0  0  0  0  0  0  0  0  0
  1  2  1  0
M  END
$$$$
/tmp/tmpgrjzr62x.pdb
     RDKit          3D

  3  3  0  0  1  0  0  0  0  0999 V2000
    0.3310   17.0320  -53.5500 C   0  0  0  0  0  0  0  0  0  0  0  0
    1.3370   17.9000  -52.8510 C   0  0  0  0  0  0  0  0  0  0  0  0
   -0.0400   17.8190  -52.2910 C   0  0  0  0  0  0  0  0  0  0  0  0
  1  2  1  0
  1  3  1  0
  2  3  1  0
M  END
$$$$
/tmp/tmp59cnvu3g.pdb
     RDKit          3D

  3  2  0  0  0  0  0  0  0  0999 V2000
   -6.8730   42.5400   38.7460 C   0  0  0  0  0  0  0  0  0  0  0  0
   -6.0350   41.6590   38.4660 O   0  0  0  0  0  0  0  0  0  0  0  0
   -7.6390   43.0760   37.9230 O   0  0  0  0  0  0  0  0  0  0  0  0
  1  2  2  0
  1  3  1  0
M  END
$$$$
/tmp/tmp3uh_ifji.pdb
     RDKit          3D

  6  6  0  0  0  0  0  0  0  0999 V2000
   24.4570   18.1950   30.1600 N   0  0  0  0  0  0  0  0  0  0  0  0
   23.9210   15.8790   31.9940 C   0  0  0  0  0  0  0  0  0  0  0  0
   23.8690   15.8160   30.4460 C   0  0  0  0  0  0  0  0  0  0  0  0
   24.8270   16.8170   29.7810 C   0  0  0  0  0  0  0  0  0  0  0  0
   24.1000   18.4080   31.5830 C   0  0  0  0  0  0  0  0  0  0  0  0
   24.4930   17.2250   32.4890 C   0  0  0  0  0  0  0  0  0  0  0  0
  1  4  1  0
  1  5  1  0
  2  3  1  0
  2  6  1  0
  3  4  1  0
  5  6  1  0
M  END
$$$$
/tmp/tmpc3tt2ktb.pdb
     RDKit          3D

  1  0  0  0  0  0  0  0  0  0999 V2000
  -36.1410   -7.6550    4.4090 O   0  0  0  0  0  0  0  0  0  0  0  0
M  END
$$$$
/tmp/tmp1hm6wl8q.pdb
     RDKit          3D

  3  2  0  0  0  0  0  0  0  0999 V2000
    3.5400    1.1640   18.6970 C   0  0  0  0  0  0  0  0  0  0  0  0
    3.2400    0.2180   17.9430 O   0  0  0  0  0  0  0  0  0  0  0  0
    3.1030    1.3010   19.8580 O   0  0  0  0  0  0  0  0  0  0  0  0
  1  2  2  0
  1  3  1  0
M  END
$$$$
/tmp/tmp3lyzun97.pdb
     RDKit          3D

  1  0  0  0  1  0  0  0  0  0999 V2000
  -17.5740   35.7120   -7.9250 C   0  0  0  0  0  0  0  0  0  0  0  0
M  END
$$$$
/tmp/tmp0w9efe9v.pdb
     RDKit          3D

  3  2  0  0  0  0  0  0  0  0999 V2000
   -0.2750  -31.7380   24.9490 C   0  0  0  0  0  0  0  0  0  0  0  0
    0.1890  -31.8730   22.6660 C   0  0  0  0  0  0  0  0  0  0  0  0
    0.7300  -31.9970   23.9760 O   0  0  0  0  0  0  0  0  0  0  0  0
  1  3  1  0
  2  3  1  0
M  END
$$$$
/tmp/tmpep7hq3l5.pdb
     RDKit          3D

  7  7  0  0  0  0  0  0  0  0999 V2000
    4.8130  -18.9100   10.1970 N   0  0  0  0  0  0  0  0  0  0  0  0
    4.1320  -17.0860    8.7520 C   0  0  0  0  0  0  0  0  0  0  0  0
    2.8790  -17.6960    8.5660 C   0  0  0  0  0  0  0  0  0  0  0  0
    2.6160  -18.9190    9.1970 C   0  0  0  0  0  0  0  0  0  0  0  0
    3.6090  -19.4710   10.0190 C   0  0  0  0  0  0  0  0  0  0  0  0
    5.0630  -17.7430    9.5770 C   0  0  0  0  0  0  0  0  0  0  0  0
    3.3440  -20.6200   10.6720 F   0  0  0  0  0  0  0  0  0  0  0  0
  1  5  4  0
  1  6  4  0
  2  3  4  0
  2  6  4  0
  3  4  4  0
  4  5  4  0
  5  7  1  0
M  END
$$$$
/tmp/tmpky12rjbt.pdb
     RDKit          3D

  7  6  0  0  1  0  0  0  0  0999 V2000
   -9.7940  -67.3320   64.8260 C   0  0  0  0  0  0  0  0  0  0  0  0
  -10.5960  -67.4540   63.6020 C   0  0  0  0  0  0  0  0  0  0  0  0
  -11.0620  -68.6480   62.9850 C   0  0  0  0  0  0  0  0  0  0  0  0
  -11.7100  -68.2320   61.8530 C   0  0  0  0  0  0  0  0  0  0  0  0
  -11.0080  -66.4100   62.8260 C   0  0  0  0  0  0  0  0  0  0  0  0
   -7.7290  -72.0100   70.7770 O   0  0  0  0  0  0  0  0  0  0  0  0
  -11.6910  -66.8730   61.7450 O   0  0  0  0  0  0  0  0  0  0  0  0
  1  2  1  0
  2  3  4  0
  2  5  4  0
  3  4  4  0
  4  7  4  0
  5  7  4  0
M  END
$$$$
/tmp/tmpn7wxxtmi.pdb
     RDKit          3D

  1  0  0  0  0  0  0  0  0  0999 V2000
   25.8070  -13.5640  -26.2760 C   0  0  0  0  0  0  0  0  0  0  0  0
M  END
$$$$
/tmp/tmp8u_ch3_z.pdb
     RDKit          3D

  1  0  0  0  0  0  0  0  0  0999 V2000
   25.3620   -2.8810   39.1850 N   0  0  0  0  0  0  0  0  0  0  0  0
M  END
$$$$
/tmp/tmpzh631zie.pdb
     RDKit          3D

  1  0  0  0  1  0  0  0  0  0999 V2000
   27.4090    3.2770   -4.8330 C   0  0  0  0  0  0  0  0  0  0  0  0
M  END
$$$$
/tmp/tmprpp_63nb.pdb
     RDKit          3D

  1  0  0  0  1  0  0  0  0  0999 V2000
   -7.6370  -14.2800   10.1990 Cl  0  0  0  0  0  0  0  0  0  0  0  0
M  END
$$$$
/tmp/tmpy3lb4spz.pdb
     RDKit          3D

  6  6  0  0  1  0  0  0  0  0999 V2000
   -8.0700   24.9550   21.4870 N   0  0  0  0  0  0  0  0  0  0  0  0
  -10.7100   24.9000   20.4960 C   0  0  0  0  0  0  0  0  0  0  0  0
   -9.6790   24.1990   19.8450 C   0  0  0  0  0  0  0  0  0  0  0  0
   -8.3820   24.2560   20.3790 C   0  0  0  0  0  0  0  0  0  0  0  0
   -9.0640   25.6080   22.1210 C   0  0  0  0  0  0  0  0  0  0  0  0
  -10.3940   25.6100   21.6700 C   0  0  0  0  0  0  0  0  0  0  0  0
  1  4  4  0
  1  5  4  0
  2  3  4  0
  2  6  4  0
  3  4  4  0
  5  6  4  0
M  END
$$$$
/tmp/tmp46_iga31.pdb
     RDKit          3D

  7  7  0  0  1  0  0  0  0  0999 V2000
  -16.0260    5.7670   25.3110 N   0  0  0  0  0  0  0  0  0  0  0  0
  -14.5300    5.2970   23.6810 N   0  0  0  0  0  0  0  0  0  0  0  0
  -14.3770    7.3430   24.6970 N   0  0  0  0  0  0  0  0  0  0  0  0
  -16.0600    7.9980   26.3010 C   0  0  0  0  0  0  0  0  0  0  0  0
  -16.5720    6.6930   26.1330 C   0  0  0  0  0  0  0  0  0  0  0  0
  -15.0010    6.1890   24.5830 C   0  0  0  0  0  0  0  0  0  0  0  0
  -14.9130    8.2630   25.5270 C   0  0  0  0  0  0  0  0  0  0  0  0
  1  5  4  0
  1  6  4  0
  2  6  1  0
  3  6  4  0
  3  7  4  0
  4  5  4  0
  4  7  4  0
M  END
$$$$
/tmp/tmpn0cfg2qd.pdb
     RDKit          3D

  4  2  0  0  1  0  0  0  0  0999 V2000
  -50.1680   -4.5810  -22.7630 N   0  0  0  0  0  0  0  0  0  0  0  0
  -47.0790   -7.0090  -23.1820 C   0  0  0  0  0  0  0  0  0  0  0  0
  -49.3870   -3.7260  -22.1110 C   0  0  0  0  0  0  0  0  0  0  0  0
  -49.0940   -2.6280  -22.5800 O   0  0  0  0  0  0  0  0  0  0  0  0
  1  3  1  0
  3  4  2  0
M  END
$$$$
/tmp/tmp5666_3gt.pdb
     RDKit          3D

  6  6  0  0  1  0  0  0  0  0999 V2000
   -8.5250   -9.8940   21.7170 N   0  0  0  0  0  0  0  0  0  0  0  0
   -8.2310   -8.6380   22.0990 N   0  0  0  0  0  0  0  0  0  0  0  0
   -6.6560   -6.7360   21.6560 C   0  0  0  0  0  0  0  0  0  0  0  0
   -7.1510   -8.1150   21.4330 C   0  0  0  0  0  0  0  0  0  0  0  0
   -6.6900   -9.1090   20.6250 C   0  0  0  0  0  0  0  0  0  0  0  0
   -7.6160  -10.1690   20.8080 C   0  0  0  0  0  0  0  0  0  0  0  0
  1  2  4  0
  1  6  4  0
  2  4  4  0
  3  4  1  0
  4  5  4  0
  5  6  4  0
M  END
$$$$
/tmp/tmp0f4z8haz.pdb
     RDKit          3D

  5  4  0  0  1  0  0  0  0  0999 V2000
   38.3310  181.9820  144.3510 N   0  0  0  0  0  0  0  0  0  0  0  0
   39.8400  179.7150  144.6050 C   0  0  0  0  0  0  0  0  0  0  0  0
   40.7830  182.1600  145.1060 O   0  0  0  0  0  0  0  0  0  0  0  0
   40.2350  181.5280  142.6930 O   0  0  0  0  0  0  0  0  0  0  0  0
   39.9360  181.4610  144.1290 S   0  0  0  0  0  0  0  0  0  0  0  0
  1  5  1  0
  2  5  1  0
  3  5  2  0
  4  5  2  0
M  END
$$$$
/tmp/tmpuhuc1vki.pdb
     RDKit          3D

  3  3  0  0  0  0  0  0  0  0999 V2000
   17.4090    8.0630   23.3660 C   0  0  0  0  0  0  0  0  0  0  0  0
   18.8760    7.8140   23.5540 C   0  0  0  0  0  0  0  0  0  0  0  0
   17.9970    8.0820   24.7570 C   0  0  0  0  0  0  0  0  0  0  0  0
  1  2  1  0
  1  3  1  0
  2  3  1  0
M  END
$$$$
/tmp/tmprjbtjhy3.pdb
     RDKit          3D

  1  0  0  0  1  0  0  0  0  0999 V2000
  136.7570   93.8040   64.9920 F   0  0  0  0  0  0  0  0  0  0  0  0
M  END
$$$$
/tmp/tmpa4jgzdot.pdb
     RDKit          3D

  1  0  0  0  1  0  0  0  0  0999 V2000
   15.0180    7.9810   20.1340 Cl  0  0  0  0  0  0  0  0  0  0  0  0
M  END
$$$$
/tmp/tmpez5fjxyv.pdb
     RDKit          3D

  1  0  0  0  0  0  0  0  0  0999 V2000
 -123.2520 -178.3280  306.5340 C   0  0  0  0  0  0  0  0  0  0  0  0
M  END
$$$$
/tmp/tmp4g8dlxg9.pdb
     RDKit          3D

  4  3  0  0  1  0  0  0  0  0999 V2000
  -27.4690    0.6340  -10.5600 N   0  0  0  0  0  0  0  0  0  0  0  0
  -28.2410    0.5340   -9.4770 C   0  0  0  0  0  0  0  0  0  0  0  0
  -27.5300    0.3810   -8.1420 C   0  0  0  0  0  0  0  0  0  0  0  0
  -29.4660    0.5880   -9.5180 O   0  0  0  0  0  0  0  0  0  0  0  0
  1  2  1  0
  2  3  1  0
  2  4  2  0
M  END
$$$$
/tmp/tmpz2syo_xg.pdb
     RDKit          3D

  2  1  0  0  1  0  0  0  0  0999 V2000
   10.5920    9.0480   15.3430 N   0  0  0  0  0  0  0  0  0  0  0  0
   10.3950    9.3670   14.2500 C   0  0  0  0  0  0  0  0  0  0  0  0
  1  2  3  0
M  END
$$$$
/tmp/tmp0kks2gc7.pdb
     RDKit          3D

  3  2  0  0  1  0  0  0  0  0999 V2000
   10.2310   36.5490  -29.7610 N   0  0  0  0  0  0  0  0  0  0  0  0
    9.1540   36.0810  -28.8900 C   0  0  0  0  0  0  0  0  0  0  0  0
   11.4110   35.6970  -29.7530 C   0  0  0  0  0  0  0  0  0  0  0  0
  1  2  1  0
  1  3  1  0
M  END
$$$$
/tmp/tmpssimpmai.pdb
     RDKit          3D

  1  0  0  0  1  0  0  0  0  0999 V2000
  -27.2380    7.7920   32.0560 Cl  0  0  0  0  0  0  0  0  0  0  0  0
M  END
$$$$
/tmp/tmp7160whao.pdb
     RDKit          3D

  3  2  0  0  0  0  0  0  0  0999 V2000
    0.7770  -39.5210  -14.2280 C   0  0  0  0  0  0  0  0  0  0  0  0
   -0.0020  -40.8090  -13.9310 C   0  0  0  0  0  0  0  0  0  0  0  0
    1.2920  -39.5260  -15.6750 C   0  0  0  0  0  0  0  0  0  0  0  0
  1  2  1  0
  1  3  1  0
M  END
$$$$
/tmp/tmppgavbvo2.pdb
     RDKit          3D

  1  0  0  0  1  0  0  0  0  0999 V2000
    0.0320   16.4220    8.0960 C   0  0  0  0  0  0  0  0  0  0  0  0
M  END
$$$$
/tmp/tmpw9yrg41e.pdb
     RDKit          3D

  9 10  0  0  1  0  0  0  0  0999 V2000
  -16.9800   -4.4410    2.8900 N   0  0  0  0  0  0  0  0  0  0  0  0
  -17.7230   -3.8890    4.0270 C   0  0  0  0  0  0  0  0  0  0  0  0
  -17.3880   -2.3940    4.2570 C   0  0  0  0  0  0  0  0  0  0  0  0
  -16.9360   -2.1470    1.9870 C   0  0  2  0  0  0  0  0  0  0  0  0
  -17.2070   -1.4880    0.6380 C   0  0  0  0  0  0  0  0  0  0  0  0
  -16.8140   -2.5650   -0.3890 C   0  0  0  0  0  0  0  0  0  0  0  0
  -16.6490   -3.8820    0.3940 C   0  0  0  0  0  0  0  0  0  0  0  0
  -17.3230   -3.5980    1.7410 C   0  0  1  0  0  0  0  0  0  0  0  0
  -17.6910   -1.6420    3.0800 O   0  0  0  0  0  0  0  0  0  0  0  0
  1  2  1  0
  1  8  1  0
  2  3  1  0
  3  9  1  0
  4  5  1  6
  4  8  1  0
  4  9  1  0
  5  6  1  0
  6  7  1  0
  8  7  1  6
M  END
$$$$
/tmp/tmpmwepb988.pdb
     RDKit          3D

  6  5  0  0  1  0  0  0  0  0999 V2000
   -5.3650  -58.9800    2.4770 C   0  0  0  0  0  0  0  0  0  0  0  0
   -4.7270  -61.0910    3.3040 C   0  0  0  0  0  0  0  0  0  0  0  0
   -5.0580  -62.1600    4.3560 C   0  0  0  0  0  0  0  0  0  0  0  0
   -4.7340  -61.7200    5.7900 C   0  0  0  0  0  0  0  0  0  0  0  0
   -5.6310  -60.0050    3.4200 O   0  0  0  0  0  0  0  0  0  0  0  0
   -5.7320  -60.8160    6.2650 O   0  0  0  0  0  0  0  0  0  0  0  0
  1  5  1  0
  2  3  1  0
  2  5  1  0
  3  4  1  0
  4  6  1  0
M  END
$$$$
/tmp/tmp1ufd24qt.pdb
     RDKit          3D

  1  0  0  0  1  0  0  0  0  0999 V2000
   68.4010   48.6990   38.2080 F   0  0  0  0  0  0  0  0  0  0  0  0
M  END
$$$$
/tmp/tmpt6ya3zvv.pdb
     RDKit          3D

  6  6  0  0  0  0  0  0  0  0999 V2000
   33.1970   40.6050   53.5530 N   0  0  0  0  0  0  0  0  0  0  0  0
   32.3840   40.3360   52.3780 C   0  0  0  0  0  0  0  0  0  0  0  0
   31.6290   41.6020   51.8900 C   0  0  0  0  0  0  0  0  0  0  0  0
   33.0870   43.0000   53.1150 C   0  0  0  0  0  0  0  0  0  0  0  0
   34.0030   41.8010   53.4260 C   0  0  0  0  0  0  0  0  0  0  0  0
   32.4530   42.7690   51.8640 O   0  0  0  0  0  0  0  0  0  0  0  0
  1  2  1  0
  1  5  1  0
  2  3  1  0
  3  6  1  0
  4  5  1  0
  4  6  1  0
M  END
$$$$
/tmp/tmpjkrhncfo.pdb
     RDKit          3D

  6  4  0  0  1  0  0  0  0  0999 V2000
   38.5610   36.9470   12.9780 C   0  0  0  0  0  0  0  0  0  0  0  0
   39.6160   36.0860   13.5330 C   0  0  0  0  0  0  0  0  0  0  0  0
   44.5850   28.5380   10.5270 C   0  0  0  0  0  0  0  0  0  0  0  0
   44.3960   27.9150    9.1380 C   0  0  0  0  0  0  0  0  0  0  0  0
   43.6850   28.4860    8.2860 O   0  0  0  0  0  0  0  0  0  0  0  0
   45.0410   26.8890    8.8430 O   0  0  0  0  0  0  0  0  0  0  0  0
  1  2  1  0
  3  4  1  0
  4  5  2  0
  4  6  1  0
M  END
$$$$
/tmp/tmp2g7t2qzt.pdb
     RDKit          3D

  4  3  0  0  0  0  0  0  0  0999 V2000
   -2.1960    5.2790   11.8370 C   0  0  0  0  0  0  0  0  0  0  0  0
   -1.8420    5.9900   10.7670 F   0  0  0  0  0  0  0  0  0  0  0  0
   -3.1810    4.4450   11.5060 F   0  0  0  0  0  0  0  0  0  0  0  0
   -1.1470    4.5880   12.2820 F   0  0  0  0  0  0  0  0  0  0  0  0
  1  2  1  0
  1  3  1  0
  1  4  1  0
M  END
$$$$
/tmp/tmpxq3yadf6.pdb
     RDKit          3D

  1  0  0  0  0  0  0  0  0  0999 V2000
   30.0890   -0.3780   41.0540 N   0  0  0  0  0  0  0  0  0  0  0  0
M  END
$$$$
/tmp/tmp0klmok_n.pdb
     RDKit          3D

  7  7  0  0  0  0  0  0  0  0999 V2000
   18.8350  103.6400   45.3570 C   0  0  0  0  0  0  0  0  0  0  0  0
   18.7390  103.9580   43.9850 C   0  0  0  0  0  0  0  0  0  0  0  0
   18.1930  103.0330   43.0760 C   0  0  0  0  0  0  0  0  0  0  0  0
   17.7520  101.7770   43.5350 C   0  0  0  0  0  0  0  0  0  0  0  0
   17.2170  100.7460   42.5750 C   0  0  0  0  0  0  0  0  0  0  0  0
   17.8310  101.4590   44.9020 C   0  0  0  0  0  0  0  0  0  0  0  0
   18.3580  102.3910   45.8100 C   0  0  0  0  0  0  0  0  0  0  0  0
  1  2  4  0
  1  7  4  0
  2  3  4  0
  3  4  4  0
  4  5  1  0
  4  6  4  0
  6  7  4  0
M  END
$$$$
/tmp/tmpt_0zsq4w.pdb
     RDKit          3D

  3  2  0  0  0  0  0  0  0  0999 V2000
   54.2000   28.1070   44.3720 C   0  0  0  0  0  0  0  0  0  0  0  0
   54.7170   28.8800   45.5780 C   0  0  0  0  0  0  0  0  0  0  0  0
   54.8210   28.1780   43.3110 O   0  0  0  0  0  0  0  0  0  0  0  0
  1  2  1  0
  1  3  2  0
M  END
$$$$
/tmp/tmpp1fb_q_o.pdb
     RDKit          3D

  7  7  0  0  0  0  0  0  0  0999 V2000
   29.3790   40.6240   16.8320 C   0  0  0  0  0  0  0  0  0  0  0  0
   29.8630   39.6730   17.9230 C   0  0  0  0  0  0  0  0  0  0  0  0
   31.2300   39.3460   18.0640 C   0  0  0  0  0  0  0  0  0  0  0  0
   31.6320   38.3570   18.9820 C   0  0  0  0  0  0  0  0  0  0  0  0
   30.6840   37.7290   19.8090 C   0  0  0  0  0  0  0  0  0  0  0  0
   29.3250   38.0790   19.7030 C   0  0  0  0  0  0  0  0  0  0  0  0
   28.9160   39.0370   18.7560 C   0  0  0  0  0  0  0  0  0  0  0  0
  1  2  1  0
  2  3  4  0
  2  7  4  0
  3  4  4  0
  4  5  4  0
  5  6  4  0
  6  7  4  0
M  END
$$$$
/tmp/tmpv1u99j1_.pdb
     RDKit          3D

  1  0  0  0  0  0  0  0  0  0999 V2000
    9.5070   37.5180   50.7640 O   0  0  0  0  0  0  0  0  0  0  0  0
M  END
$$$$
/tmp/tmpyhco980l.pdb
     RDKit          3D

  1  0  0  0  0  0  0  0  0  0999 V2000
   -4.2270   29.9020    8.4910 F   0  0  0  0  0  0  0  0  0  0  0  0
M  END
$$$$
/tmp/tmpa9gc0ce6.pdb
     RDKit          3D

  1  0  0  0  1  0  0  0  0  0999 V2000
  -34.3160   -5.0750   70.1750 Cl  0  0  0  0  0  0  0  0  0  0  0  0
M  END
$$$$
/tmp/tmpn5_kwyy0.pdb
     RDKit          3D

  2  0  0  0  1  0  0  0  0  0999 V2000
   15.6410  -39.3680    6.1000 N   0  0  0  0  0  0  0  0  0  0  0  0
   20.0760  -37.5060   10.4600 F   0  0  0  0  0  0  0  0  0  0  0  0
M  END
$$$$
/tmp/tmpx9jpursm.pdb
     RDKit          3D

  1  0  0  0  1  0  0  0  0  0999 V2000
   19.0780  -11.1950   17.0520 O   0  0  0  0  0  0  0  0  0  0  0  0
M  END
$$$$
/tmp/tmppgn25lzu.pdb
     RDKit          3D

  1  0  0  0  1  0  0  0  0  0999 V2000
   21.0790   -3.6140   18.4350 C   0  0  0  0  0  0  0  0  0  0  0  0
M  END
$$$$
/tmp/tmp6ppv7g2k.pdb
     RDKit          3D

  1  0  0  0  1  0  0  0  0  0999 V2000
   23.8950   -6.6760   11.8650 F   0  0  0  0  0  0  0  0  0  0  0  0
M  END
$$$$
/tmp/tmp1o2q1fjk.pdb
     RDKit          3D

  7  7  0  0  0  0  0  0  0  0999 V2000
   21.5280  -30.8620    0.7360 N   0  0  0  0  0  0  0  0  0  0  0  0
   21.1840  -30.5140   -0.5350 N   0  0  0  0  0  0  0  0  0  0  0  0
   22.5690  -29.7040    2.6940 C   0  0  0  0  0  0  0  0  0  0  0  0
   21.3260  -29.9630    1.8400 C   0  0  0  0  0  0  0  0  0  0  0  0
   21.9560  -32.1600    0.8330 C   0  0  0  0  0  0  0  0  0  0  0  0
   21.9750  -32.6460   -0.4320 C   0  0  0  0  0  0  0  0  0  0  0  0
   21.5090  -31.5850   -1.2550 C   0  0  0  0  0  0  0  0  0  0  0  0
  1  2  4  0
  1  4  1  0
  1  5  4  0
  2  7  4  0
  3  4  1  0
  5  6  4  0
  6  7  4  0
M  END
$$$$
/tmp/tmpkmjsk1zy.pdb
     RDKit          3D

  1  0  0  0  0  0  0  0  0  0999 V2000
  -17.0670    9.8330   -6.2140 C   0  0  0  0  0  0  0  0  0  0  0  0
M  END
$$$$
/tmp/tmpp69a2oth.pdb
     RDKit          3D

  2  0  0  0  1  0  0  0  0  0999 V2000
  -53.2670    2.2620  -29.1230 C   0  0  0  0  0  0  0  0  0  0  0  0
  -52.5770    3.4900  -14.9610 C   0  0  0  0  0  0  0  0  0  0  0  0
M  END
$$$$
/tmp/tmpfs6npoik.pdb
     RDKit          3D

  1  0  0  0  0  0  0  0  0  0999 V2000
   44.9500   20.2470   33.6510 Cl  0  0  0  0  0  0  0  0  0  0  0  0
M  END
$$$$
/tmp/tmpjec5ym7r.pdb
     RDKit          3D

  1  0  0  0  0  0  0  0  0  0999 V2000
  -39.1430   -6.5560   67.0160 Br  0  0  0  0  0  0  0  0  0  0  0  0
M  END
$$$$
/tmp/tmpxrd8d4ux.pdb
     RDKit          3D

  1  0  0  0  0  0  0  0  0  0999 V2000
  -29.0730    8.0750   11.0400 Cl  0  0  0  0  0  0  0  0  0  0  0  0
M  END
$$$$
/tmp/tmpauowkdt6.pdb
     RDKit          3D

  6  6  0  0  1  0  0  0  0  0999 V2000
  -52.7670  -43.3600   24.9180 C   0  0  0  0  0  0  0  0  0  0  0  0
  -52.0370  -44.4020   25.5270 C   0  0  0  0  0  0  0  0  0  0  0  0
  -52.1510  -44.6350   26.9110 C   0  0  0  0  0  0  0  0  0  0  0  0
  -52.9930  -43.8240   27.6950 C   0  0  0  0  0  0  0  0  0  0  0  0
  -53.7210  -42.7780   27.0940 C   0  0  0  0  0  0  0  0  0  0  0  0
  -53.6060  -42.5460   25.7090 C   0  0  0  0  0  0  0  0  0  0  0  0
  1  2  4  0
  1  6  4  0
  2  3  4  0
  3  4  4  0
  4  5  4  0
  5  6  4  0
M  END
$$$$
/tmp/tmpikuv6e2z.pdb
     RDKit          3D

  6  5  0  0  0  0  0  0  0  0999 V2000
   50.7300   23.9750   40.7750 N   0  0  0  0  0  0  0  0  0  0  0  0
   49.4430   23.3630   41.1470 C   0  0  0  0  0  0  0  0  0  0  0  0
   51.3120   24.7910   41.8490 C   0  0  0  0  0  0  0  0  0  0  0  0
   53.0980   23.8070   39.8070 O   0  0  0  0  0  0  0  0  0  0  0  0
   51.9120   21.7000   40.5510 O   0  0  0  0  0  0  0  0  0  0  0  0
   51.8680   23.0110   39.8930 S   0  0  0  0  0  0  0  0  0  0  0  0
  1  2  1  0
  1  3  1  0
  1  6  1  0
  4  6  2  0
  5  6  2  0
M  END
$$$$
/tmp/tmp1qnfmyyx.pdb
     RDKit          3D

  1  0  0  0  1  0  0  0  0  0999 V2000
   22.7800   -1.0920   28.8600 F   0  0  0  0  0  0  0  0  0  0  0  0
M  END
$$$$
/tmp/tmp3hkbnnho.pdb
     RDKit          3D

  3  2  0  0  0  0  0  0  0  0999 V2000
  -13.9350   14.8290   10.0540 N   0  0  0  0  0  0  0  0  0  0  0  0
  -13.8710   15.2520    8.6350 C   0  0  0  0  0  0  0  0  0  0  0  0
  -15.2130   15.2030   10.7060 C   0  0  0  0  0  0  0  0  0  0  0  0
  1  2  1  0
  1  3  1  0
M  END
$$$$
/tmp/tmpp1qni4uq.pdb
     RDKit          3D

  1  0  0  0  1  0  0  0  0  0999 V2000
  -22.8940   34.6090    7.6320 C   0  0  0  0  0  0  0  0  0  0  0  0
M  END
$$$$
/tmp/tmpi8l8thgf.pdb
     RDKit          3D

  1  0  0  0  1  0  0  0  0  0999 V2000
    7.6940   -5.0960   -7.5910 Cl  0  0  0  0  0  0  0  0  0  0  0  0
M  END
$$$$
/tmp/tmplvonwy_6.pdb
     RDKit          3D

  1  0  0  0  1  0  0  0  0  0999 V2000
   46.0940   52.1800   32.9390 C   0  0  0  0  0  0  0  0  0  0  0  0
M  END
$$$$
/tmp/tmpe3obfyq2.pdb
     RDKit          3D

  5  5  0  0  0  0  0  0  0  0999 V2000
   -7.4030   -7.8300    3.9450 C   0  0  0  0  0  0  0  0  0  0  0  0
   -8.0830   -7.4850    5.0840 C   0  0  0  0  0  0  0  0  0  0  0  0
   -7.8430   -6.1360    5.4830 C   0  0  0  0  0  0  0  0  0  0  0  0
   -6.9980   -5.4700    4.6330 C   0  0  0  0  0  0  0  0  0  0  0  0
   -6.4720   -6.4940    3.3220 S   0  0  0  0  0  0  0  0  0  0  0  0
  1  2  4  0
  1  5  4  0
  2  3  4  0
  3  4  4  0
  4  5  4  0
M  END
$$$$
/tmp/tmpytrxkwea.pdb
     RDKit          3D

  5  4  0  0  1  0  0  0  0  0999 V2000
   -7.7410  -11.3810  -13.4770 C   0  0  0  0  0  0  0  0  0  0  0  0
   -6.5540  -11.7980  -12.5880 C   0  0  0  0  0  0  0  0  0  0  0  0
   -5.3360  -12.0600  -13.4900 C   0  0  0  0  0  0  0  0  0  0  0  0
   -6.1790  -10.6610  -11.6140 C   0  0  0  0  0  0  0  0  0  0  0  0
   -6.8850  -13.0860  -11.8360 C   0  0  0  0  0  0  0  0  0  0  0  0
  1  2  1  0
  2  3  1  0
  2  4  1  0
  2  5  1  0
M  END
$$$$
/tmp/tmp1zf0kwyu.pdb
     RDKit          3D

  1  0  0  0  1  0  0  0  0  0999 V2000
  -41.8210   -2.8590    6.5750 O   0  0  0  0  0  0  0  0  0  0  0  0
M  END
$$$$
/tmp/tmpfr6dlzrb.pdb
     RDKit          3D

  2  1  0  0  1  0  0  0  0  0999 V2000
   -3.3290  -72.6450   74.8500 C   0  0  0  0  0  0  0  0  0  0  0  0
   -4.5530  -73.4740   75.1700 C   0  0  0  0  0  0  0  0  0  0  0  0
  1  2  1  0
M  END
$$$$
/tmp/tmpaeaclpxs.pdb
     RDKit          3D

  3  2  0  0  0  0  0  0  0  0999 V2000
   50.8790    6.6860    2.3200 C   0  0  0  0  0  0  0  0  0  0  0  0
   50.6900    7.6450    3.1060 O   0  0  0  0  0  0  0  0  0  0  0  0
   51.9590    6.0510    2.2710 O   0  0  0  0  0  0  0  0  0  0  0  0
  1  2  2  0
  1  3  1  0
M  END
$$$$
/tmp/tmptbz187p8.pdb
     RDKit          3D

  1  0  0  0  1  0  0  0  0  0999 V2000
   11.4280   15.8340   13.6910 C   0  0  0  0  0  0  0  0  0  0  0  0
M  END
$$$$
/tmp/tmpnltnlkle.pdb
     RDKit          3D

  3  3  0  0  1  0  0  0  0  0999 V2000
  -22.3710  -44.6060    1.3320 C   0  0  0  0  0  0  0  0  0  0  0  0
  -22.7970  -44.9830    2.7380 C   0  0  0  0  0  0  0  0  0  0  0  0
  -23.2970  -43.7090    2.1200 C   0  0  0  0  0  0  0  0  0  0  0  0
  1  2  1  0
  1  3  1  0
  2  3  1  0
M  END
$$$$
/tmp/tmpronefzh0.pdb
     RDKit          3D

  3  2  0  0  0  0  0  0  0  0999 V2000
    2.1080   17.9800   59.3080 C   0  0  0  0  0  0  0  0  0  0  0  0
    0.9670   16.9760   59.2890 C   0  0  0  0  0  0  0  0  0  0  0  0
   -0.1930   17.3410   59.1030 O   0  0  0  0  0  0  0  0  0  0  0  0
  1  2  1  0
  2  3  2  0
M  END
$$$$
/tmp/tmprelemy5d.pdb
     RDKit          3D

  7  7  0  0  1  0  0  0  0  0999 V2000
  -11.0850   13.9580   28.4340 C   0  0  0  0  0  0  0  0  0  0  0  0
  -12.4250   13.7250   29.1580 C   0  0  0  0  0  0  0  0  0  0  0  0
  -12.1810   13.3450   30.6310 C   0  0  0  0  0  0  0  0  0  0  0  0
  -11.2530   12.1210   30.7680 C   0  0  1  0  0  0  0  0  0  0  0  0
   -9.9470   12.3160   29.9830 C   0  0  0  0  0  0  0  0  0  0  0  0
  -10.2260   12.6860   28.5230 C   0  0  0  0  0  0  0  0  0  0  0  0
  -10.9290   11.9150   32.1300 O   0  0  0  0  0  0  0  0  0  0  0  0
  1  2  1  6
  1  6  1  0
  2  3  1  0
  3  4  1  0
  4  5  1  0
  4  7  1  1
  5  6  1  0
M  END
$$$$
/tmp/tmpzf1v106y.pdb
     RDKit          3D

  1  0  0  0  1  0  0  0  0  0999 V2000
  -12.8970   30.4070  -21.9290 F   0  0  0  0  0  0  0  0  0  0  0  0
M  END
$$$$
/tmp/tmp8n49f86k.pdb
     RDKit          3D

  1  0  0  0  1  0  0  0  0  0999 V2000
    8.2970   20.2920   90.2390 N   0  0  0  0  0  0  0  0  0  0  0  0
M  END
$$$$
/tmp/tmpsjuyoyr3.pdb
     RDKit          3D

  1  0  0  0  1  0  0  0  0  0999 V2000
   67.5610  -15.0390   10.7420 C   0  0  0  0  0  0  0  0  0  0  0  0
M  END
$$$$
/tmp/tmpi935bu71.pdb
     RDKit          3D

  2  1  0  0  1  0  0  0  0  0999 V2000
  -20.7990  -44.5340    0.7270 N   0  0  0  0  0  0  0  0  0  0  0  0
  -20.8800  -43.9640   -0.2760 C   0  0  0  0  0  0  0  0  0  0  0  0
  1  2  3  0
M  END
$$$$
/tmp/tmpvuoptk3t.pdb
     RDKit          3D

  6  6  0  0  0  0  0  0  0  0999 V2000
   35.9730  -21.9300   -2.4180 N   0  0  0  0  0  0  0  0  0  0  0  0
   35.9200  -19.9590   -0.9970 C   0  0  0  0  0  0  0  0  0  0  0  0
   36.4190  -19.1700   -2.0510 C   0  0  0  0  0  0  0  0  0  0  0  0
   36.6760  -19.7810   -3.2880 C   0  0  0  0  0  0  0  0  0  0  0  0
   36.4290  -21.1560   -3.4240 C   0  0  0  0  0  0  0  0  0  0  0  0
   35.7160  -21.3330   -1.2360 C   0  0  0  0  0  0  0  0  0  0  0  0
  1  5  4  0
  1  6  4  0
  2  3  4  0
  2  6  4  0
  3  4  4  0
  4  5  4  0
M  END
$$$$
/tmp/tmppgpcv_et.pdb
     RDKit          3D

  7  7  0  0  1  0  0  0  0  0999 V2000
   21.5230  -30.8490    0.8110 N   0  0  0  0  0  0  0  0  0  0  0  0
   21.1600  -30.4630   -0.4440 N   0  0  0  0  0  0  0  0  0  0  0  0
   22.7610  -29.9970    2.7760 C   0  0  0  0  0  0  0  0  0  0  0  0
   21.4820  -29.9430    1.9330 C   0  0  0  0  0  0  0  0  0  0  0  0
   21.8900  -32.1660    0.8710 C   0  0  0  0  0  0  0  0  0  0  0  0
   21.8940  -32.6150   -0.4080 C   0  0  0  0  0  0  0  0  0  0  0  0
   21.4420  -31.5240   -1.1970 C   0  0  0  0  0  0  0  0  0  0  0  0
  1  2  4  0
  1  4  1  0
  1  5  4  0
  2  7  4  0
  3  4  1  0
  5  6  4  0
  6  7  4  0
M  END
$$$$
/tmp/tmpbop9j4fu.pdb
     RDKit          3D

  1  0  0  0  0  0  0  0  0  0999 V2000
   14.6800    4.9670   14.2750 F   0  0  0  0  0  0  0  0  0  0  0  0
M  END
$$$$
/tmp/tmpycyq44gw.pdb
     RDKit          3D

  8  8  0  0  1  0  0  0  0  0999 V2000
   -3.2650   -5.5790   61.7350 C   0  0  0  0  0  0  0  0  0  0  0  0
   -4.5580   -6.2700   62.1250 C   0  0  0  0  0  0  0  0  0  0  0  0
   -4.8340   -6.4220   63.4990 C   0  0  0  0  0  0  0  0  0  0  0  0
   -6.0200   -7.0390   63.9200 C   0  0  0  0  0  0  0  0  0  0  0  0
   -6.9380   -7.5030   62.9670 C   0  0  0  0  0  0  0  0  0  0  0  0
   -6.6840   -7.3590   61.5860 C   0  0  0  0  0  0  0  0  0  0  0  0
   -7.7440   -7.8950   60.6360 C   0  0  0  0  0  0  0  0  0  0  0  0
   -5.4730   -6.7450   61.1430 C   0  0  0  0  0  0  0  0  0  0  0  0
  1  2  1  0
  2  3  4  0
  2  8  4  0
  3  4  4  0
  4  5  4  0
  5  6  4  0
  6  7  1  0
  6  8  4  0
M  END
$$$$
/tmp/tmpt2x19tvo.pdb
     RDKit          3D

  1  0  0  0  1  0  0  0  0  0999 V2000
    3.7050  -12.3350   16.4070 C   0  0  0  0  0  0  0  0  0  0  0  0
M  END
$$$$
/tmp/tmpcdirp4sd.pdb
     RDKit          3D

  1  0  0  0  1  0  0  0  0  0999 V2000
   45.3420   16.3570   39.5840 C   0  0  0  0  0  0  0  0  0  0  0  0
M  END
$$$$
/tmp/tmpmz72wk1a.pdb
     RDKit          3D

  1  0  0  0  0  0  0  0  0  0999 V2000
    8.6340   11.7860   16.3530 C   0  0  0  0  0  0  0  0  0  0  0  0
M  END
$$$$
/tmp/tmpyl_xwmb5.pdb
     RDKit          3D

  1  0  0  0  0  0  0  0  0  0999 V2000
    8.4390   60.5410   52.9090 F   0  0  0  0  0  0  0  0  0  0  0  0
M  END
$$$$
/tmp/tmp20togbmw.pdb
     RDKit          3D

  1  0  0  0  1  0  0  0  0  0999 V2000
   26.0370    9.1920   13.4750 O   0  0  0  0  0  0  0  0  0  0  0  0
M  END
$$$$
/tmp/tmpd6x4bcw1.pdb
     RDKit          3D

  1  0  0  0  0  0  0  0  0  0999 V2000
   58.9960   26.1740   45.9740 C   0  0  0  0  0  0  0  0  0  0  0  0
M  END
$$$$
/tmp/tmptk_2saf9.pdb
     RDKit          3D

  3  2  0  0  1  0  0  0  0  0999 V2000
   37.0020   25.6930   31.7020 C   0  0  0  0  0  0  0  0  0  0  0  0
   36.7020   26.5780   32.5260 O   0  0  0  0  0  0  0  0  0  0  0  0
   37.9960   25.7550   30.9560 O   0  0  0  0  0  0  0  0  0  0  0  0
  1  2  2  0
  1  3  1  0
M  END
$$$$
/tmp/tmp1d3d8gkv.pdb
     RDKit          3D

  5  4  0  0  1  0  0  0  0  0999 V2000
   43.6840  -13.2160    7.0480 C   0  0  0  0  0  0  0  0  0  0  0  0
   43.1200  -14.3780    6.2230 C   0  0  0  0  0  0  0  0  0  0  0  0
   42.1130  -13.5180    4.2040 C   0  0  0  0  0  0  0  0  0  0  0  0
   41.9870  -13.9720    5.4660 O   0  0  0  0  0  0  0  0  0  0  0  0
   43.2160  -13.3370    3.6840 O   0  0  0  0  0  0  0  0  0  0  0  0
  1  2  1  0
  2  4  1  0
  3  4  1  0
  3  5  2  0
M  END
$$$$
/tmp/tmpenk7vi9i.pdb
     RDKit          3D

  1  0  0  0  0  0  0  0  0  0999 V2000
  -24.3780   15.3780  -37.1840 C   0  0  0  0  0  0  0  0  0  0  0  0
M  END
$$$$
/tmp/tmp5jvqofd9.pdb
     RDKit          3D

  6  5  0  0  1  0  0  0  0  0999 V2000
  -21.6340   15.4430   33.5960 N   0  0  0  0  0  0  0  0  0  0  0  0
  -20.0490   16.5210   32.0610 C   0  0  2  0  0  0  0  0  0  0  0  0
  -19.9860   17.7450   32.9900 C   0  0  0  0  0  0  0  0  0  0  0  0
  -21.3010   15.6710   32.3310 C   0  0  0  0  0  0  0  0  0  0  0  0
  -18.8900   15.7550   32.3580 O   0  0  0  0  0  0  0  0  0  0  0  0
  -21.9660   15.1990   31.4150 O   0  0  0  0  0  0  0  0  0  0  0  0
  1  4  1  0
  2  3  1  1
  2  4  1  0
  2  5  1  0
  4  6  2  0
M  END
$$$$
/tmp/tmp0nojqude.pdb
     RDKit          3D

  9  9  0  0  1  0  0  0  0  0999 V2000
  -16.7440  -24.2880   31.3450 N   0  0  0  0  0  0  0  0  0  0  0  0
  -17.1650  -24.2910   28.5300 N   0  0  0  0  0  0  0  0  0  0  0  0
  -14.8940  -24.0880   33.0010 C   0  0  0  0  0  0  0  0  0  0  0  0
  -16.2620  -23.6830   32.4550 C   0  0  0  0  0  0  0  0  0  0  0  0
  -18.0920  -24.0400   30.8220 C   0  0  0  0  0  0  0  0  0  0  0  0
  -18.0160  -23.4670   29.3950 C   0  0  0  0  0  0  0  0  0  0  0  0
  -15.8540  -24.6520   29.0860 C   0  0  0  0  0  0  0  0  0  0  0  0
  -16.0040  -25.2340   30.5030 C   0  0  0  0  0  0  0  0  0  0  0  0
  -16.8960  -22.8240   33.0700 O   0  0  0  0  0  0  0  0  0  0  0  0
  1  4  1  0
  1  5  1  0
  1  8  1  0
  2  6  1  0
  2  7  1  0
  3  4  1  0
  4  9  2  0
  5  6  1  0
  7  8  1  0
M  END
$$$$
/tmp/tmpyy11ohuo.pdb
     RDKit          3D

  1  0  0  0  1  0  0  0  0  0999 V2000
    8.4660   -6.6400   17.4250 F   0  0  0  0  0  0  0  0  0  0  0  0
M  END
$$$$
/tmp/tmpwlh9sz1h.pdb
     RDKit          3D

  1  0  0  0  1  0  0  0  0  0999 V2000
   23.5590   15.5240    7.0990 O   0  0  0  0  0  0  0  0  0  0  0  0
M  END
$$$$
/tmp/tmpq0_ys1vi.pdb
     RDKit          3D

  1  0  0  0  0  0  0  0  0  0999 V2000
    4.1250  -34.7960   20.2240 Cl  0  0  0  0  0  0  0  0  0  0  0  0
M  END
$$$$
/tmp/tmphzuhxnuh.pdb
     RDKit          3D

  1  0  0  0  0  0  0  0  0  0999 V2000
   -5.6170    2.2720   15.3010 Cl  0  0  0  0  0  0  0  0  0  0  0  0
M  END
$$$$
/tmp/tmpya1douip.pdb
     RDKit          3D

  1  0  0  0  0  0  0  0  0  0999 V2000
   70.4330   61.2300   33.3550 F   0  0  0  0  0  0  0  0  0  0  0  0
M  END
$$$$
/tmp/tmp0hqcg7is.pdb
     RDKit          3D

  4  4  0  0  1  0  0  0  0  0999 V2000
    3.0040   14.1330   30.2820 C   0  0  0  0  0  0  0  0  0  0  0  0
    3.7620   13.5650   29.0680 C   0  0  0  0  0  0  0  0  0  0  0  0
    1.7460   13.4690   29.6960 C   0  0  0  0  0  0  0  0  0  0  0  0
    2.4240   13.5120   28.3230 C   0  0  0  0  0  0  0  0  0  0  0  0
  1  2  1  0
  1  3  1  0
  2  4  1  0
  3  4  1  0
M  END
$$$$
